# generated using pymatgen
data_Nb3Cl8
_symmetry_space_group_name_H-M   P-3m1
_cell_length_a   6.80129902
_cell_length_b   6.80129902
_cell_length_c   12.76792964
_cell_angle_alpha   90.00000000
_cell_angle_beta   90.00000000
_cell_angle_gamma   120.00000000
_symmetry_Int_Tables_number   164
_chemical_formula_structural   Nb3Cl8
_chemical_formula_sum   'Nb6 Cl16'
_cell_volume   511.48729426
_cell_formula_units_Z   2
loop_
 _symmetry_equiv_pos_site_id
 _symmetry_equiv_pos_as_xyz
  1  'x, y, z'
  2  '-x, -y, -z'
  3  '-y, x-y, z'
  4  'y, -x+y, -z'
  5  '-x+y, -x, z'
  6  'x-y, x, -z'
  7  'y, x, -z'
  8  '-y, -x, z'
  9  'x-y, -y, -z'
  10  '-x+y, y, z'
  11  '-x, -x+y, -z'
  12  'x, x-y, z'
loop_
 _atom_type_symbol
 _atom_type_oxidation_number
  Nb2.67+  2.666666666666666
  Cl-  -1.0
loop_
 _atom_site_type_symbol
 _atom_site_label
 _atom_site_symmetry_multiplicity
 _atom_site_fract_x
 _atom_site_fract_y
 _atom_site_fract_z
 _atom_site_occupancy
  Nb2.67+  Nb0  6  0.05778762  0.52889381  0.75423880  1
  Cl-  Cl1  6  0.16504503  0.33009007  0.13968306  1
  Cl-  Cl2  6  0.16844803  0.33689606  0.62475816  1
  Cl-  Cl3  2  0.33333333  0.66666667  0.35153654  1
  Cl-  Cl4  2  0.33333333  0.66666667  0.89921843  1
